USER  MOD reduce.3.24.130724 H: found=0, std=0, add=0, rem=0, adj=0
@<TRIPOS>MOLECULE
1ake
57 62 1 0 0
SMALL
NO_CHARGES
 
 
@<TRIPOS>ATOM
      1 PA         18.0890   46.9550   20.5310 P.3       1 AP5    0.0000
      2 O1A        17.8850   47.9540   21.5760 O.co2     1 AP5    0.0000
      3 O2A        18.8470   47.3250   19.3590 O.co2     1 AP5    0.0000
      4 O3A        18.3900   45.5460   21.2470 O.3       1 AP5    0.0000
      5 PB         19.7990   44.9540   21.7080 P.3       1 AP5    0.0000
      6 O1B        19.3340   44.0080   22.7600 O.co2     1 AP5    0.0000
      7 O2B        20.6260   46.0630   22.1360 O.co2     1 AP5    0.0000
      8 O3B        20.3540   44.1370   20.4290 O.3       1 AP5    0.0000
      9 PG         21.8970   43.7580   20.1740 P.3       1 AP5    0.0000
     10 O1G        21.8970   42.5070   19.1810 O.co2     1 AP5    0.0000
     11 O2G        22.3530   43.2290   21.4740 O.co2     1 AP5    0.0000
     12 O3G        22.6280   44.9180   19.6220 O.3       1 AP5    0.0000
     13 PD         23.7970   45.1140   18.5280 P.3       1 AP5    0.0000
     14 O1D        23.8540   46.5810   18.2940 O.co2     1 AP5    0.0000
     15 O2D        23.3260   44.3240   17.3610 O.co2     1 AP5    0.0000
     16 O3D        25.8700   44.7720   18.8920 O.3       1 AP5    0.0000
     17 PE         25.8290   43.4560   19.5530 P.3       1 AP5    0.0000
     18 O1E        24.4690   42.5540   19.6600 O.co2     1 AP5    0.0000
     19 O2E        26.4070   43.5950   20.9030 O.co2     1 AP5    0.0000
     20 O5F        16.6640   46.5790   19.9610 O.3       1 AP5    0.0000
     21 C5F        16.5430   45.8430   18.7660 C.3       1 AP5    0.0000
     22 C4F        15.5200   46.4640   17.8140 C.3       1 AP5    0.0000
     23 O4F        14.1670   46.3470   18.3130 O.3       1 AP5    0.0000
     24 C3F        15.7580   47.9860   17.5080 C.3       1 AP5    0.0000
     25 O3F        15.2390   48.2740   16.2270 O.3       1 AP5    0.0000
     26 C2F        14.8530   48.6630   18.5490 C.3       1 AP5    0.0000
     27 O2F        14.3440   49.9270   18.0680 O.3       1 AP5    0.0000
     28 C1F        13.7660   47.5960   18.8820 C.3       1 AP5    0.0000
     29 N9A        13.1060   47.5710   20.1710 N.pl3     1 AP5    0.0000
     30 C8A        13.7240   47.8230   21.3740 C.2       1 AP5    0.0000
     31 N7A        12.9290   47.6610   22.4050 N.2       1 AP5    0.0000
     32 C5A        11.6900   47.2640   21.9160 C.ar      1 AP5    0.0000
     33 C6A        10.4520   46.9920   22.5340 C.ar      1 AP5    0.0000
     34 N6A        10.2650   47.1420   23.8460 N.pl3     1 AP5    0.0000
     35 N1A         9.4210   46.7050   21.7180 N.ar      1 AP5    0.0000
     36 C2A         9.6470   46.5910   20.4160 C.ar      1 AP5    0.0000
     37 N3A        10.7500   46.8120   19.7010 N.ar      1 AP5    0.0000
     38 C4A        11.7990   47.1900   20.4900 C.ar      1 AP5    0.0000
     39 O5J        26.9540   42.5550   18.8680 O.3       1 AP5    0.0000
     40 C5J        27.0430   42.2910   17.4710 C.3       1 AP5    0.0000
     41 C4J        28.3870   41.5900   17.2480 C.3       1 AP5    0.0000
     42 O4J        29.4460   42.2760   17.9820 O.3       1 AP5    0.0000
     43 C3J        28.3510   40.1640   17.8440 C.3       1 AP5    0.0000
     44 O3J        27.7540   39.2320   16.9130 O.3       1 AP5    0.0000
     45 C2J        29.8380   39.8950   18.1060 C.3       1 AP5    0.0000
     46 O2J        30.5140   39.7030   16.8740 O.3       1 AP5    0.0000
     47 C1J        30.1730   41.2890   18.6870 C.3       1 AP5    0.0000
     48 N9B        30.4200   41.5060   20.0990 N.pl3     1 AP5    0.0000
     49 C8B        29.8990   42.5030   20.8290 C.2       1 AP5    0.0000
     50 N7B        30.2170   42.4240   22.0860 N.2       1 AP5    0.0000
     51 C5B        30.9660   41.3180   22.2520 C.ar      1 AP5    0.0000
     52 C6B        31.4840   40.7130   23.3880 C.ar      1 AP5    0.0000
     53 N6B        31.3680   41.2380   24.6260 N.pl3     1 AP5    0.0000
     54 N1B        32.0950   39.5560   23.1600 N.ar      1 AP5    0.0000
     55 C2B        32.3100   39.1500   21.9180 C.ar      1 AP5    0.0000
     56 N3B        31.8280   39.5960   20.7740 N.ar      1 AP5    0.0000
     57 C4B        31.1090   40.7150   20.9890 C.ar      1 AP5    0.0000
@<TRIPOS>BOND
     1    1    2 1
     2    1    3 1
     3    1    4 1
     4    1   20 1
     5    4    5 1
     6    5    6 1
     7    5    7 1
     8    5    8 1
     9    8    9 1
    10    9   10 1
    11    9   11 1
    12    9   12 1
    13   12   13 1
    14   13   14 1
    15   13   15 1
    16   13   16 1
    17   16   17 1
    18   17   18 1
    19   17   19 1
    20   17   39 1
    21   20   21 1
    22   21   22 1
    23   22   23 1
    24   22   24 1
    25   23   28 1
    26   24   25 1
    27   24   26 1
    28   26   27 1
    29   26   28 1
    30   28   29 1
    31   29   30 2
    32   29   38 1
    33   30   31 2
    34   31   32 1
    35   32   33 ar
    36   32   38 ar
    37   33   34 1
    38   33   35 ar
    39   35   36 ar
    40   36   37 ar
    41   37   38 ar
    42   39   40 1
    43   40   41 1
    44   41   42 1
    45   41   43 1
    46   42   47 1
    47   43   44 1
    48   43   45 1
    49   45   46 1
    50   45   47 1
    51   47   48 1
    52   48   49 2
    53   48   57 1
    54   49   50 2
    55   50   51 1
    56   51   52 ar
    57   51   57 ar
    58   52   53 1
    59   52   54 ar
    60   54   55 ar
    61   55   56 ar
    62   56   57 ar
@<TRIPOS>SUBSTRUCTURE
     1 AP5     1 RESIDUE           4 A     AP5     0 ROOT
